Circuit: * Z:\home\xmont\Proyectos Git\Electronic_Project\LOGAMP.asc

V1: Missing value, assumed 0V @ DC
Direct Newton iteration failed to find .op point.  (Use ".option noopiter" to skip.)
Starting Gmin stepping
Gmin = 10
Gmin = 1.07374
vernier = 0.5
vernier = 0.25
vernier = 0.125
vernier = 0.0625
Gmin = 1.08884
vernier = 0.03125
vernier = 0.015625
Gmin = 1.03122
vernier = 0.0078125
vernier = 0.00390625
Gmin = 1.01823
vernier = 0.00520833
vernier = 0.00260417
Gmin = 1.01162
vernier = 0.00347222
vernier = 0.00173611
vernier = 0.000868055
Gmin = 1.00899
vernier = 0.00115741
vernier = 0.000578703
Gmin = 1.0071
vernier = 0.000771604
vernier = 0.000578703
Gmin = 1.00579
vernier = 0.000771604
vernier = 0.000578703
vernier = 0.000434027
Gmin = 1.00499
vernier = 0.000578703
vernier = 0.000434027
Gmin = 0
Gmin stepping failed

Starting source stepping with srcstepmethod=0
Source Step = 3.0303%
Source Step = 33.3333%
Source Step = 63.6364%
Source Step = 93.9394%
Source Step = 95.4545%
Source Step = 97.3485%
Source Step = 99.2424%
Source stepping succeeded in finding the operating point.


Date: Sun Dec 30 23:42:53 2018
Total elapsed time: 3.669 seconds.

tnom = 27
temp = 27
method = trap
totiter = 207137
traniter = 0
tranpoints = 0
accept = 0
rejected = 0
matrix size = 81
fillins = 146
solver = Normal
Matrix Compiler1:     657 opcodes  4.4/3.4/[1.9]
Matrix Compiler2: 9.15 KB object code size  2.8/3.9/[1.4]

